43

Co	4.279991300000018	4.009995600000017	0.0	
Co	5.707009099999995	6.014993399999996	0.0	
Co	4.279991300000018	0.0	0.0	
Co	5.707009099999995	2.005000270000026	0.0	
Co	0.0	4.009995600000017	0.0	
Co	1.4270005100000127	6.014993399999996	0.0	
Co	0.0	0.0	0.0	
Co	1.4270005100000127	2.005000270000026	0.0	
Co	6.4199993000000015	4.009995600000017	1.2350000000000343	
Co	7.846992400000029	6.014993399999996	1.2350000000000343	
Co	6.4199993000000015	0.0	1.2350000000000343	
Co	7.846992400000029	2.005000270000026	1.2350000000000343	
Co	2.1400005899999983	4.009995600000017	1.2350000000000343	
Co	3.5670011000000112	6.014993399999996	1.2350000000000343	
Co	2.1400005899999983	0.0	1.2350000000000343	
Co	3.5670011000000112	2.005000270000026	1.2350000000000343	
Co	4.305148082201651	4.014331182249628	2.480394153836415	
Co	5.667309684012225	6.022386279364458	2.4835596081489055	
Co	4.2502981099646115	8.00326384170476	2.487922729030081	
Co	5.689052866600781	1.9951931513676016	2.498751534300281	
Co	0.035919476730002294	4.01793655095925	2.4958596789977623	
Co	1.4363554950001072	6.032528127044324	2.4681458143499295	
Co	0.03350579856710063	8.016272906897179	2.485831493451937	
Co	1.422379918412698	1.996352039876005	2.4845718525264657	
Co	6.482525268696003	4.011379746095611	3.6112699906310706	
Co	7.778192575537747	6.013909487381743	3.6031537072520385	
Co	6.482135780419249	8.017863155439667	3.5952996662159746	
Co	7.794402338872028	2.0054549052388935	3.6114070184227556	
Co	2.201629791710251	4.003916531634586	3.613192255892182	
Co	3.5465475923764216	5.967318464771757	3.7411622860861717	
Co	2.147772503393812	0.037894307955335715	3.741439801011645	
Co	3.5412701115934526	2.0063692748822293	3.6073978616652247	
C	2.085280195715053	5.584262999848713	6.8498000291588985	
C	2.900789412744623	6.4201857093529195	5.877928764323226	
C	4.3449824231958	6.626060577884461	6.297686610346252	
O	2.244383882443145	7.52055109296404	5.487837233936083	
H	1.0945963081173953	5.3692334681486145	6.428072437840253	
H	1.9540683724817012	6.168696996958158	7.776077211361119	
H	2.5909854333912135	4.639714388509873	7.0904511498775475	
H	2.800815065038331	5.118324884866985	4.870992327234683	
H	4.343763596202536	7.106675699995519	7.293747539712689	
H	4.891068938457044	5.675907758838725	6.366519407448846	
H	4.872942202909847	7.295601603801927	5.600074534172554	
