12
Paco
C	1.1563349439416035	1.6348621901194988	9.36525884704851
C	1.1894871265783977	0.16598440066996595	9.019127098739062
C	1.2616342925576245	-0.7561597657814734	10.217583917696308
O	-0.032174002861784	-0.11920890343034095	8.266264700907614
H	2.0512497260244213	-0.03588206877882583	8.344626946614381
H	0.3035339379947803	1.8625107965362266	10.021325689299623
H	1.0621159283272739	2.246225210281331	8.449603963171224
H	2.0903987180852184	1.9243832984805367	9.866877550569885
H	-0.16604205967501923	-1.093912786271124	8.248107999573612
H	1.28108146345917	-1.8100645058784992	9.897192025058343
H	0.39634824475994695	-0.5984941208526264	10.878894970715523
H	2.180033217915699	-0.5620586788854232	10.789867969738067
