10
Paco
C	3.80351781912025	1.1271259159687297	6.483931233250319
C	2.7467832394909277	1.7597373116110704	5.607391554549081
C	1.3247828879659889	1.466829980801883	6.027934703643334
O	3.0187255426045194	3.046991106072212	5.254315254815424
H	3.729126402728837	1.5448450813357648	7.505419012946761
H	4.812218887048836	1.3295049862508705	6.097397204423025
H	3.6561600187542522	0.03973815345181645	6.538911806447476
H	0.6127772127549415	2.0737065917789947	5.441023107338447
H	1.2116942589772217	1.74573281244779	7.093065156559819
H	1.0520882889019407	0.40430220909231535	5.933465039303468
