32

Co	4.279991300000018	4.009995600000017	0.0	
Co	5.707009099999995	6.014993399999996	0.0	
Co	4.279991300000018	0.0	0.0	
Co	5.707009099999995	2.005000270000026	0.0	
Co	0.0	4.009995600000017	0.0	
Co	1.4270005100000127	6.014993399999996	0.0	
Co	0.0	0.0	0.0	
Co	1.4270005100000127	2.005000270000026	0.0	
Co	6.4199993000000015	4.009995600000017	1.2350000000000343	
Co	7.846992400000029	6.014993399999996	1.2350000000000343	
Co	6.4199993000000015	0.0	1.2350000000000343	
Co	7.846992400000029	2.005000270000026	1.2350000000000343	
Co	2.1400005899999983	4.009995600000017	1.2350000000000343	
Co	3.5670011000000112	6.014993399999996	1.2350000000000343	
Co	2.1400005899999983	0.0	1.2350000000000343	
Co	3.5670011000000112	2.005000270000026	1.2350000000000343	
Co	4.289598437035689	4.009995600000017	2.5091430327814472	
Co	5.6974019629643236	6.014993399999996	2.5091430327814472	
Co	4.289598437035689	0.0	2.5091430327814472	
Co	5.6974019629643236	2.005000270000026	2.5091430327814472	
Co	0.009597429935691074	4.009995600000017	2.5091430327814472	
Co	1.4174032529643208	6.014993399999996	2.5091430327814472	
Co	0.009597429935691074	0.0	2.5091430327814472	
Co	1.4174032529643208	2.005000270000026	2.5091430327814472	
Co	6.47047863669346	4.009995600000017	3.6282351093339034	
Co	7.79651306330651	6.014993399999996	3.6282351093339034	
Co	6.47047863669346	0.0	3.6282351093339034	
Co	7.79651306330651	2.005000270000026	3.6282351093339034	
Co	2.1904898066934977	4.009995600000017	3.6282351093339034	
Co	3.516521763306554	6.014993399999996	3.6282351093339034	
Co	2.1904898066934977	0.0	3.6282351093339034	
Co	3.516521763306554	2.005000270000026	3.6282351093339034	
