11
Paco
C	1.8441047578329741	0.534879342996728	6.303304548291073
C	3.011636414253008	0.02366687003213407	5.473897013716966
C	3.6138229252577188	-1.2503286498401767	6.030629857136884
O	3.992630362322854	1.0135607667534288	5.304009836836091
H	1.0400542993099653	-0.21271037491614908	6.353986228398534
H	1.4324557125970443	1.466655866317112	5.887757446916841
H	2.1955057183134348	0.7413641127491977	7.332070667450997
H	4.774606912140038	0.5364389286501635	4.276908853968432
H	4.4404520512066705	-1.6553008625438093	5.392708391979973
H	4.11503910226738	-1.038398421425405	6.994911802178775
H	2.8495598891259286	-2.0216936742556646	6.199082593836026
