42

Co	4.279991300000018	4.009995600000017	0.0	
Co	5.707009099999995	6.014993399999996	0.0	
Co	4.279991300000018	0.0	0.0	
Co	5.707009099999995	2.005000270000026	0.0	
Co	0.0	4.009995600000017	0.0	
Co	1.4270005100000127	6.014993399999996	0.0	
Co	0.0	0.0	0.0	
Co	1.4270005100000127	2.005000270000026	0.0	
Co	6.4199993000000015	4.009995600000017	1.2350000000000343	
Co	7.846992400000029	6.014993399999996	1.2350000000000343	
Co	6.4199993000000015	0.0	1.2350000000000343	
Co	7.846992400000029	2.005000270000026	1.2350000000000343	
Co	2.1400005899999983	4.009995600000017	1.2350000000000343	
Co	3.5670011000000112	6.014993399999996	1.2350000000000343	
Co	2.1400005899999983	0.0	1.2350000000000343	
Co	3.5670011000000112	2.005000270000026	1.2350000000000343	
Co	4.280378672333971	4.011051014154855	2.4594848184671	
Co	5.694919907618458	6.012339377157242	2.5048375337428226	
Co	4.2927136035953515	0.01275163297393772	2.493469221035362	
Co	5.66070936387707	2.009789343419047	2.4904525667779898	
Co	0.03492590728636474	4.009089800723622	2.5023489319646255	
Co	1.4215539342298205	6.004385474555968	2.5035135536593867	
Co	0.029226173626347433	8.017633443699623	2.4911909481626937	
Co	1.4218956836753365	2.005233295737856	2.4398978117600145	
Co	6.475218676158921	4.00981297334619	3.6108729043692698	
Co	7.804571423692236	6.016017570863444	3.622099466185011	
Co	6.480924196923702	0.00017908710485439914	3.6095364608156473	
Co	7.773028854544322	2.0041436052778008	3.5933450912185547	
Co	2.1483813108719922	4.023470887595302	3.7050907680885485	
Co	3.5293137529577963	6.020209574371591	3.600392439319646	
Co	2.197741687240906	8.014430750981061	3.628686219328342	
Co	3.5205605043357098	1.9718588009029847	3.71750385383032	
C	3.80351781912025	1.1271259159687297	6.483931233250319	
C	2.7467832394909277	1.7597373116110704	5.607391554549081	
C	1.3247828879659889	1.466829980801883	6.027934703643334	
O	3.018725542604519	3.0469911060722126	5.254315254815424	
H	3.7291264027288364	1.5448450813357648	7.505419012946762	
H	4.812218887048836	1.3295049862508705	6.097397204423026	
H	3.6561600187542522	0.03973815345181645	6.538911806447476	
H	0.6127772127549415	2.0737065917789947	5.441023107338447	
H	1.2116942589772215	1.74573281244779	7.093065156559819	
H	1.0520882889019407	0.40430220909231535	5.933465039303468	
