43

Co	4.279991300000018	4.009995600000017	0.0	
Co	5.707009099999995	6.014993399999996	0.0	
Co	4.279991300000018	0.0	0.0	
Co	5.707009099999995	2.005000270000026	0.0	
Co	0.0	4.009995600000017	0.0	
Co	1.4270005100000127	6.014993399999996	0.0	
Co	0.0	0.0	0.0	
Co	1.4270005100000127	2.005000270000026	0.0	
Co	6.4199993000000015	4.009995600000017	1.2350000000000343	
Co	7.846992400000029	6.014993399999996	1.2350000000000343	
Co	6.4199993000000015	0.0	1.2350000000000343	
Co	7.846992400000029	2.005000270000026	1.2350000000000343	
Co	2.1400005899999983	4.009995600000017	1.2350000000000343	
Co	3.5670011000000112	6.014993399999996	1.2350000000000343	
Co	2.1400005899999983	0.0	1.2350000000000343	
Co	3.5670011000000112	2.005000270000026	1.2350000000000343	
Co	4.283070184894828	4.00551128460284	2.4988711353507225	
Co	5.688147633508571	6.019841655774124	2.50316207265866	
Co	4.276958821729122	0.011215808506021727	2.478711502075436	
Co	5.679180205879986	2.000150967976822	2.505357905001369	
Co	0.016932761279296736	4.0010751095988395	2.5045636482922724	
Co	1.4070727032437464	6.027859971715739	2.5012382899343275	
Co	0.041229480289874	0.007198031060450367	2.5004316081238316	
Co	1.441848216055752	1.9862172166226422	2.49936729425978	
Co	6.4718116479042544	4.011745156112528	3.622660905734044	
Co	7.794290610373098	6.013238486171811	3.6245984536706444	
Co	6.497645634382141	8.013528407664376	3.5977043531537674	
Co	7.777896074915091	2.0031728254420846	3.618142071693351	
Co	2.170375062332813	4.019127613280392	3.612048318745252	
Co	3.504364295811503	6.014981092977445	3.613912504489111	
Co	2.1817053771011192	7.9904158155645275	3.713009827998484	
Co	3.5221450165243753	2.0516205405153505	3.704574534235749	
C	1.5167282624318934	0.6069279435091813	6.3402542323249795	
C	2.780327723764998	0.20160821024273015	5.602272640982301	
C	3.492379894529919	7.072375119447199	6.28444334155835	
O	3.673141239446242	1.3898079307345093	5.651991636766626	
H	0.7674301820541675	7.826302628373784	6.270642456908917	
H	1.0787314061998472	1.5205083682389728	5.913671142618337	
H	1.7470387179395053	0.7901492025811844	7.407246533364755	
H	4.603348496236003	1.0717842049186317	5.61628017347141	
H	4.434100394603776	6.804595292980744	5.767740007433329	
H	3.7450537323082824	7.335083265113469	7.331622947495524	
H	2.845766961586638	6.182449235866285	6.304870119204563	
